<?xml version="1.0" encoding="UTF-8"?>

<!-- generated on 2025-12-30T15:21:45.439623+03:00 by Eclipse SUMO netedit 1.25.0
<neteditConfiguration xmlns:xsi="http://www.w3.org/2001/XMLSchema-instance" xsi:noNamespaceSchemaLocation="http://sumo.dlr.de/xsd/neteditConfiguration.xsd">

    <input>
        <sumo-net-file value="C:\Users\HP\Desktop\Akilli_Trafik_Sistemi - Kopya3\Akilli_Trafik_Sistemi - Kopya3\simulation\kavsak.net.xml"/>
    </input>

    <output>
        <output-file value="C:\Users\HP\Desktop\Akilli_Trafik_Sistemi - Kopya3\Akilli_Trafik_Sistemi - Kopya3\simulation\kavsak.net.xml"/>
    </output>

    <processing>
        <geometry.min-radius.fix.railways value="false"/>
        <geometry.avoid-overlap value="false"/>
        <geometry.max-grade.fix value="false"/>
        <offset.disable-normalization value="true"/>
        <lefthand value="0"/>
    </processing>

    <junctions>
        <no-internal-links value="false"/>
        <no-turnarounds value="true"/>
        <junctions.corner-detail value="0"/>
        <junctions.limit-turn-speed value="-1.00"/>
        <rectangular-lane-cut value="0"/>
    </junctions>

    <pedestrian>
        <walkingareas value="1"/>
    </pedestrian>

</neteditConfiguration>
-->

<net version="1.20" walkingareas="true" avoidOverlap="0" xmlns:xsi="http://www.w3.org/2001/XMLSchema-instance" xsi:noNamespaceSchemaLocation="http://sumo.dlr.de/xsd/net_file.xsd">

    <location netOffset="0.00,0.00" convBoundary="-100.00,-100.00,100.00,100.00" origBoundary="-100.00,-100.00,100.00,100.00" projParameter="!"/>

    <edge id=":J1_w0" function="walkingarea">
        <lane id=":J1_w0_0" index="0" allow="pedestrian" speed="2.78" length="9.60" width="3.20" shape="-100.00,-3.20 -100.00,-6.40 -100.00,6.40 -100.00,3.20"/>
    </edge>
    <edge id=":J2_w0" function="walkingarea">
        <lane id=":J2_w0_0" index="0" allow="pedestrian" speed="2.78" length="9.60" width="3.20" shape="100.00,3.20 100.00,6.40 100.00,-6.40 100.00,-3.20"/>
    </edge>
    <edge id=":J3_w0" function="walkingarea">
        <lane id=":J3_w0_0" index="0" allow="pedestrian" speed="2.78" length="9.60" width="3.20" shape="3.20,-100.00 6.40,-100.00 -6.40,-100.00 -3.20,-100.00"/>
    </edge>
    <edge id=":J4_w0" function="walkingarea">
        <lane id=":J4_w0_0" index="0" allow="pedestrian" speed="2.78" length="9.60" width="3.20" shape="-3.20,100.00 -6.40,100.00 6.40,100.00 3.20,100.00"/>
    </edge>
    <edge id=":center_0" function="internal">
        <lane id=":center_0_0" index="0" disallow="pedestrian" speed="13.89" length="15.80" shape="-1.60,7.90 -1.60,-7.90"/>
    </edge>
    <edge id=":center_1" function="internal">
        <lane id=":center_1_0" index="0" disallow="pedestrian" speed="13.89" length="15.80" shape="7.90,1.60 -7.90,1.60"/>
    </edge>
    <edge id=":center_2" function="internal">
        <lane id=":center_2_0" index="0" disallow="pedestrian" speed="13.89" length="15.80" shape="1.60,-7.90 1.60,7.90"/>
    </edge>
    <edge id=":center_3" function="internal">
        <lane id=":center_3_0" index="0" disallow="pedestrian" speed="13.89" length="15.80" shape="-7.90,-1.60 7.90,-1.60"/>
    </edge>
    <edge id=":center_c0" function="crossing" crossingEdges="kuzey_cikis kuzey">
        <lane id=":center_c0_0" index="0" allow="pedestrian" speed="2.78" length="6.66" width="4.00" customShape="1" shape="3.13,14.99 -3.52,15.25" outlineShape="3.21,16.99 -3.44,17.25 -3.34,13.24 -3.44,17.25 -3.34,13.24 3.05,12.99 3.21,16.98 3.20,7.90 6.40,7.90 7.90,6.40 7.90,3.20 15.98,2.90 11.98,2.92 3.05,12.99"/>
    </edge>
    <edge id=":center_c1" function="crossing" crossingEdges="dogu_cikis dogu">
        <lane id=":center_c1_0" index="0" allow="pedestrian" speed="2.78" length="6.02" width="4.00" customShape="1" shape="13.94,-3.11 13.98,2.91" outlineShape="15.94,-3.12 15.98,2.90 11.98,2.92 11.94,-3.10"/>
    </edge>
    <edge id=":center_c2" function="crossing" crossingEdges="guney_cikis guney">
        <lane id=":center_c2_0" index="0" allow="pedestrian" speed="2.78" length="6.59" width="4.00" customShape="1" shape="-3.33,-14.55 3.26,-14.67" outlineShape="-3.37,-16.55 3.22,-16.67 3.21,-12.67 3.22,-16.67 3.21,-12.67 -3.29,-12.55 -3.37,-16.55 -3.29,-12.55"/>
    </edge>
    <edge id=":center_c3" function="crossing" crossingEdges="bati_cikis bati">
        <lane id=":center_c3_0" index="0" allow="pedestrian" speed="2.78" length="6.94" width="4.00" customShape="1" shape="-13.82,3.28 -13.90,-3.66" outlineShape="-15.82,3.30 -15.90,-3.64 -11.90,-3.42 -15.90,-3.64 -11.90,-3.42 -11.82,3.25 -15.82,3.30 -11.82,3.25"/>
    </edge>
    <edge id=":center_w0" function="walkingarea">
        <lane id=":center_w0_0" index="0" allow="pedestrian" speed="2.78" length="9.20" width="4.00" shape="-11.82,3.26 -15.82,3.30 -7.90,3.20 -7.90,6.40 -6.40,7.90 -3.20,7.90 -3.44,17.25 -3.60,13.25"/>
    </edge>
    <edge id=":center_w1" function="walkingarea">
        <lane id=":center_w1_0" index="0" allow="pedestrian" speed="2.78" length="9.33" width="4.00" shape="3.05,12.99 3.21,16.99 3.20,7.90 6.40,7.90 7.90,6.40 7.90,3.20 15.98,2.90 11.98,2.92"/>
    </edge>
    <edge id=":center_w2" function="walkingarea">
        <lane id=":center_w2_0" index="0" allow="pedestrian" speed="2.78" length="9.09" width="4.00" shape="11.94,-3.10 15.94,-3.12 7.90,-3.20 7.90,-6.40 6.40,-7.90 3.20,-7.90 3.22,-16.67 3.30,-12.67"/>
    </edge>
    <edge id=":center_w3" function="walkingarea">
        <lane id=":center_w3_0" index="0" allow="pedestrian" speed="2.78" length="8.88" width="4.00" shape="-3.29,-12.55 -3.37,-16.55 -3.20,-7.90 -6.40,-7.90 -7.90,-6.40 -7.90,-3.20 -15.90,-3.64 -11.90,-3.68"/>
    </edge>

    <edge id="bati" from="J1" to="center" priority="1">
        <lane id="bati_0" index="0" allow="pedestrian" speed="1.39" length="92.10" shape="-100.00,-4.80 -7.90,-4.80"/>
        <lane id="bati_1" index="1" disallow="pedestrian" speed="13.89" length="92.10" shape="-100.00,-1.60 -7.90,-1.60"/>
    </edge>
    <edge id="bati_cikis" from="center" to="J1" priority="1">
        <lane id="bati_cikis_0" index="0" allow="pedestrian" speed="1.39" length="92.10" shape="-7.90,4.80 -100.00,4.80"/>
        <lane id="bati_cikis_1" index="1" disallow="pedestrian" speed="13.89" length="92.10" shape="-7.90,1.60 -100.00,1.60"/>
    </edge>
    <edge id="dogu" from="J2" to="center" priority="1">
        <lane id="dogu_0" index="0" allow="pedestrian" speed="1.39" length="92.10" shape="100.00,4.80 7.90,4.80"/>
        <lane id="dogu_1" index="1" disallow="pedestrian" speed="13.89" length="92.10" shape="100.00,1.60 7.90,1.60"/>
    </edge>
    <edge id="dogu_cikis" from="center" to="J2" priority="1">
        <lane id="dogu_cikis_0" index="0" allow="pedestrian" speed="1.39" length="92.10" shape="7.90,-4.80 100.00,-4.80"/>
        <lane id="dogu_cikis_1" index="1" disallow="pedestrian" speed="13.89" length="92.10" shape="7.90,-1.60 100.00,-1.60"/>
    </edge>
    <edge id="guney" from="J3" to="center" priority="1">
        <lane id="guney_0" index="0" allow="pedestrian" speed="1.39" length="92.10" shape="4.80,-100.00 4.80,-7.90"/>
        <lane id="guney_1" index="1" disallow="pedestrian" speed="13.89" length="92.10" shape="1.60,-100.00 1.60,-7.90"/>
    </edge>
    <edge id="guney_cikis" from="center" to="J3" priority="1">
        <lane id="guney_cikis_0" index="0" allow="pedestrian" speed="1.39" length="92.10" shape="-4.80,-7.90 -4.80,-100.00"/>
        <lane id="guney_cikis_1" index="1" disallow="pedestrian" speed="13.89" length="92.10" shape="-1.60,-7.90 -1.60,-100.00"/>
    </edge>
    <edge id="kuzey" from="J4" to="center" priority="1">
        <lane id="kuzey_0" index="0" allow="pedestrian" speed="1.39" length="92.10" shape="-4.80,100.00 -4.80,7.90"/>
        <lane id="kuzey_1" index="1" disallow="pedestrian" speed="13.89" length="92.10" shape="-1.60,100.00 -1.60,7.90"/>
    </edge>
    <edge id="kuzey_cikis" from="center" to="J4" priority="1">
        <lane id="kuzey_cikis_0" index="0" allow="pedestrian" speed="1.39" length="92.10" shape="4.80,7.90 4.80,100.00"/>
        <lane id="kuzey_cikis_1" index="1" disallow="pedestrian" speed="13.89" length="92.10" shape="1.60,7.90 1.60,100.00"/>
    </edge>

    <tlLogic id="0" type="static" programID="0" offset="0">
        <phase duration="22" state="grgrGGrr"/>
        <phase duration="20" state="grgrrrrr"/>
        <phase duration="3"  state="yryrrrrr"/>
        <phase duration="37" state="rGrGrrGr"/>
        <phase duration="5"  state="rGrGrrrr"/>
        <phase duration="3"  state="ryryrrrr"/>
    </tlLogic>

    <junction id="J1" type="dead_end" x="-100.00" y="0.00" incLanes="bati_cikis_0 bati_cikis_1" intLanes="" shape="-100.00,0.00 -100.00,6.40 -100.00,0.00"/>
    <junction id="J2" type="dead_end" x="100.00" y="0.00" incLanes="dogu_cikis_0 dogu_cikis_1" intLanes="" shape="100.00,0.00 100.00,-6.40 100.00,0.00"/>
    <junction id="J3" type="dead_end" x="0.00" y="-100.00" incLanes="guney_cikis_0 guney_cikis_1" intLanes="" shape="0.00,-100.00 -6.40,-100.00 0.00,-100.00"/>
    <junction id="J4" type="dead_end" x="0.00" y="100.00" incLanes="kuzey_cikis_0 kuzey_cikis_1" intLanes="" shape="0.00,100.00 6.40,100.00 0.00,100.00"/>
    <junction id="center" type="traffic_light" x="0.00" y="0.00" incLanes="kuzey_0 kuzey_1 dogu_0 dogu_1 guney_0 guney_1 bati_0 bati_1 :center_w1_0 :center_w2_0 :center_w3_0 :center_w0_0" intLanes=":center_0_0 :center_1_0 :center_2_0 :center_3_0 :center_c0_0 :center_c1_0 :center_c2_0 :center_c3_0" shape="-6.40,7.90 6.40,7.90 7.90,6.40 7.90,-6.40 6.40,-7.90 -6.40,-7.90 -7.90,-6.40 -7.90,6.40">
        <request index="0" response="01010000" foes="01011010" cont="0"/>
        <request index="1" response="10100101" foes="10100101" cont="0"/>
        <request index="2" response="01010000" foes="01011010" cont="0"/>
        <request index="3" response="10100101" foes="10100101" cont="0"/>
        <request index="4" response="00000000" foes="00000101" cont="0"/>
        <request index="5" response="00000000" foes="00001010" cont="0"/>
        <request index="6" response="00000000" foes="00000101" cont="0"/>
        <request index="7" response="00000000" foes="00001010" cont="0"/>
    </junction>

    <connection from="bati" to="dogu_cikis" fromLane="1" toLane="1" via=":center_3_0" tl="0" linkIndex="3" dir="s" state="o"/>
    <connection from="dogu" to="bati_cikis" fromLane="1" toLane="1" via=":center_1_0" tl="0" linkIndex="1" dir="s" state="o"/>
    <connection from="guney" to="kuzey_cikis" fromLane="1" toLane="1" via=":center_2_0" tl="0" linkIndex="2" dir="s" state="o"/>
    <connection from="kuzey" to="guney_cikis" fromLane="1" toLane="1" via=":center_0_0" tl="0" linkIndex="0" dir="s" state="o"/>

    <connection from=":center_0" to="guney_cikis" fromLane="0" toLane="1" dir="s" state="M"/>
    <connection from=":center_1" to="bati_cikis" fromLane="0" toLane="1" dir="s" state="M"/>
    <connection from=":center_2" to="kuzey_cikis" fromLane="0" toLane="1" dir="s" state="M"/>
    <connection from=":center_3" to="dogu_cikis" fromLane="0" toLane="1" dir="s" state="M"/>

    <connection from=":J1_w0" to="bati" fromLane="0" toLane="0" dir="s" state="M"/>
    <connection from="bati_cikis" to=":J1_w0" fromLane="0" toLane="0" dir="s" state="M"/>
    <connection from=":J2_w0" to="dogu" fromLane="0" toLane="0" dir="s" state="M"/>
    <connection from="dogu_cikis" to=":J2_w0" fromLane="0" toLane="0" dir="s" state="M"/>
    <connection from=":J3_w0" to="guney" fromLane="0" toLane="0" dir="s" state="M"/>
    <connection from="guney_cikis" to=":J3_w0" fromLane="0" toLane="0" dir="s" state="M"/>
    <connection from=":J4_w0" to="kuzey" fromLane="0" toLane="0" dir="s" state="M"/>
    <connection from="kuzey_cikis" to=":J4_w0" fromLane="0" toLane="0" dir="s" state="M"/>
    <connection from=":center_c0" to=":center_w0" fromLane="0" toLane="0" dir="s" state="M"/>
    <connection from=":center_c1" to=":center_w1" fromLane="0" toLane="0" dir="s" state="M"/>
    <connection from=":center_c2" to=":center_w2" fromLane="0" toLane="0" dir="s" state="M"/>
    <connection from=":center_c3" to=":center_w3" fromLane="0" toLane="0" dir="s" state="M"/>
    <connection from=":center_w0" to=":center_c3" fromLane="0" toLane="0" tl="0" linkIndex="4" dir="s" state="M"/>
    <connection from=":center_w0" to="bati_cikis" fromLane="0" toLane="0" dir="s" state="M"/>
    <connection from="kuzey" to=":center_w0" fromLane="0" toLane="0" dir="s" state="M"/>
    <connection from=":center_w1" to=":center_c0" fromLane="0" toLane="0" tl="0" linkIndex="4" dir="s" state="M"/>
    <connection from=":center_w1" to="kuzey_cikis" fromLane="0" toLane="0" dir="s" state="M"/>
    <connection from="dogu" to=":center_w1" fromLane="0" toLane="0" dir="s" state="M"/>
    <connection from=":center_w2" to=":center_c1" fromLane="0" toLane="0" tl="0" linkIndex="5" dir="s" state="M"/>
    <connection from=":center_w2" to="dogu_cikis" fromLane="0" toLane="0" dir="s" state="M"/>
    <connection from="guney" to=":center_w2" fromLane="0" toLane="0" dir="s" state="M"/>
    <connection from=":center_w3" to=":center_c2" fromLane="0" toLane="0" tl="0" linkIndex="6" dir="s" state="M"/>
    <connection from=":center_w3" to="guney_cikis" fromLane="0" toLane="0" dir="s" state="M"/>
    <connection from="bati" to=":center_w3" fromLane="0" toLane="0" dir="s" state="M"/>
</net>
