<routes>
    <vType id="standart_arac" accel="1.0" decel="4.5" length="5.0" minGap="2.5" maxSpeed="50.0" sigma="0.5" /> 
    <vType id="yaya_tipi" vClass="pedestrian" width="0.5" length="0.5" /> 

    <route id="k_g" edges="kuzey guney_cikis" /> 
    <route id="g_k" edges="guney kuzey_cikis" /> 
    <route id="d_b" edges="dogu bati_cikis" /> 
    <route id="b_d" edges="bati dogu_cikis" /> 

    <flow id="f_k_g" type="standart_arac" route="k_g" begin="0" end="3600" probability="0.1" /> 
    <flow id="f_g_k" type="standart_arac" route="g_k" begin="0" end="3600" probability="0.1" /> 
    <flow id="f_d_b" type="standart_arac" route="d_b" begin="0" end="3600" probability="0.1" /> 
    <flow id="f_b_d" type="standart_arac" route="b_d" begin="0" end="3600" probability="0.1" /> 

    <personFlow id="p_kuzey" begin="0" end="3600" probability="0.05">
        <walk from="kuzey" to="kuzey_cikis"/> 
    </personFlow>
    <personFlow id="p_guney" begin="0" end="3600" probability="0.05">
        <walk from="guney" to="guney_cikis"/> 
    </personFlow>
    <personFlow id="p_dogu" begin="0" end="3600" probability="0.05">
        <walk from="dogu" to="dogu_cikis"/> 
    </personFlow>
    <personFlow id="p_bati" begin="0" end="3600" probability="0.05">
        <walk from="bati" to="bati_cikis"/> 
    </personFlow>
</routes>